data_PKWN-DFT
_publ_section_title
;
Structure prediction by ZEFSAII (Michael W. Deem and David J. Earl) SiO2 
 PKWN-DFT
Probable space group: P 42/M M C
;
_chemical_formula_sum "Si O2"
_cell_formula_units_Z 8
_cell_length_a                   7.0750
_cell_length_b                   7.0750
_cell_length_c                   9.0230
_cell_angle_alpha               90.0000
_cell_angle_beta                90.0000
_cell_angle_gamma               90.0000
_cell_volume 451.651904
_symmetry_space_group_name_H-M "P 42/M M C"
_space_group_IT_number 131
_symmetry_cell_setting tetragonal
loop_
_space_group_symop_operation_xyz
x,y,z
-x,-y,z
-y,x,1/2+z
y,-x,1/2+z
-x,y,-z
x,-y,-z
y,x,1/2-z
-y,-x,1/2-z
-x,-y,-z
x,y,-z
y,-x,1/2-z
-y,x,1/2-z
x,-y,z
-x,y,z
-y,-x,1/2+z
y,x,1/2+z
loop_
_atom_site_type_symbol
_atom_site_label
_atom_site_fract_x
_atom_site_fract_y
_atom_site_fract_z
O       O1      0.6857    0.3143    0.2500
O       O2      0.7258    0.5000    0.0000
O       O3      0.0000    0.5000    0.1976
Si       Si1      0.7749    0.5000    0.1740
#
# Coordination Sequence:
#
# PKWN-DFT Si02
#       1
#     8
#     4  10  21  36  55  79 106 138 175 215 260 309
#
# _framework density 17.7127560462
#
# number of rings (size 3 to 8) (size 9 to 14) (size 15 to 20)
#    0.000    2.000    0.000    6.000    0.000   10.000 
#    0.000   10.000    0.000    0.000    0.000    0.000 
#    0.000    0.000    0.000    0.000    0.000    0.000 
#
# Energy per Si from SLC FF is -12403.193900.
# Energy per Si from BKS FF is -5584.079800
# 
# From -- /home/earl/hixson/work/zeo-known/contents/DFT.cif
